OceanMesh2D
Run_001
1        	 ! NFOVER 
0        	 ! NABOUT 
360        	 ! NSCREEN 
0        	 ! IHOT 
2         	 ! ICS 
511112          	 ! IM 
1            	 ! NOLIBF 
2            	 ! NOLIFA 
1           	 ! NOLICA 
1           	 ! NOLICAT 
0           	 ! NWP 
1   	 	 ! NCOR 
1   	 	 ! NTIP 
12   	 	 ! NWS 
1   	 	 ! NRAMP 
9.810000    	 ! G  
-1   	 	 ! TAU0 
20    	 	 ! DTDP 
0  	 	 ! STATIM 
0   	 	 ! REFTIM 
10800
14   	 	 ! RNDY 
2   	 	 ! DRAMP 
0 1 0   	  ! A00, B00, C00 
0.1 0 0 0.01    	 ! H0, 2*dummy, VELMIN 
-76.572766 23.241697  	 	 ! SLAM0, SFEA0 
0.002500     	 ! CF 
-0.050000     	 	 ! ELSM 
0.000000   	 ! CORI 
8   	 	 ! NTIF 
Q1 
0.019303  6.495854130e-05 0.695000 1.187167 145.183075   	 !  TPK, AMIGT, ETRF, FFT, FACET 
O1 
0.100818  6.759774407e-05 0.695000 1.178120 148.988139   	 !  TPK, AMIGT, ETRF, FFT, FACET 
P1 
0.047037  7.252294576e-05 0.706000 0.990395 122.508321   	 !  TPK, AMIGT, ETRF, FFT, FACET 
K1 
0.141909  7.292115851e-05 0.736000 1.109694 235.364545   	 !  TPK, AMIGT, ETRF, FFT, FACET 
N2 
0.046510  1.378796998e-04 0.693000 0.967557 19.829696   	 !  TPK, AMIGT, ETRF, FFT, FACET 
M2 
0.242922  1.405189028e-04 0.693000 0.964086 23.057068   	 !  TPK, AMIGT, ETRF, FFT, FACET 
S2 
0.113308  1.454441043e-04 0.693000 1.002036 0.024473   	 !  TPK, AMIGT, ETRF, FFT, FACET 
K2 
0.030779  1.458423170e-04 0.693000 1.308173 290.362727   	 !  TPK, AMIGT, ETRF, FFT, FACET 
8   	 	 ! NBFR 
Q1  
 6.495854130e-05 1.187167 145.183075 
O1  
 6.759774407e-05 1.178120 148.988139 
P1  
 7.252294576e-05 0.990395 122.508321 
K1  
 7.292115851e-05 1.109694 235.364545 
N2  
 1.378796998e-04 0.967557 19.829696 
M2  
 1.405189028e-04 0.964086 23.057068 
S2  
 1.454441043e-04 1.002036 0.024473 
K2  
 1.458423170e-04 1.308173 290.362727 
Q1 
 6.019535802e-03  2.899923852e+02 
 5.396027456e-03  2.776120168e+02 
 3.750801873e-03  2.646839258e+02 
 2.649168025e-03  2.300804487e+02 
 3.077713842e-03  1.858599216e+02 
 4.908331182e-03  1.652986607e+02 
 9.903800914e-03  1.606573357e+02 
 1.056865394e-02  1.627825176e+02 
 1.017869307e-02  1.654351862e+02 
 9.931277599e-03  1.675770512e+02 
 9.745018745e-03  1.699599925e+02 
 9.624216921e-03  1.724332281e+02 
 9.555618422e-03  1.756655475e+02 
 9.555470362e-03  1.779285156e+02 
 9.592611696e-03  1.803237147e+02 
 9.678426208e-03  1.830194269e+02 
 9.810967918e-03  1.857420060e+02 
 9.988327948e-03  1.884582583e+02 
 1.018128758e-02  1.908278238e+02 
 1.048702695e-02  1.938871153e+02 
 1.090888895e-02  1.973028860e+02 
 1.115071693e-02  1.989883622e+02 
 1.143021411e-02  2.007538993e+02 
 1.168610818e-02  2.022315397e+02 
 1.185854235e-02  2.030992436e+02 
 1.198142098e-02  2.037833573e+02 
 1.213485625e-02  2.045450164e+02 
 1.223528022e-02  2.050189200e+02 
 1.234088589e-02  2.055373076e+02 
 1.246331858e-02  2.060990039e+02 
 1.259318434e-02  2.066865494e+02 
 1.269146267e-02  2.070886002e+02 
 1.276452906e-02  2.073808047e+02 
 1.282792166e-02  2.076423975e+02 
 1.289878989e-02  2.079459757e+02 
 1.296825342e-02  2.082526027e+02 
 1.303780444e-02  2.085659852e+02 
 1.313414349e-02  2.089423721e+02 
 1.320453775e-02  2.091663739e+02 
 1.330311164e-02  2.093995943e+02 
 1.342618949e-02  2.096398576e+02 
 1.355500793e-02  2.098491146e+02 
 1.367187032e-02  2.099896026e+02 
 1.374155629e-02  2.100562266e+02 
 1.382968958e-02  2.101367134e+02 
 1.393103505e-02  2.102333598e+02 
 1.400217601e-02  2.103064551e+02 
 1.412527521e-02  2.104468754e+02 
 1.433274549e-02  2.107381627e+02 
 1.449204667e-02  2.110296047e+02 
 1.463749813e-02  2.113544951e+02 
 1.487165715e-02  2.120494939e+02 
 1.509506683e-02  2.130372173e+02 
 1.529039954e-02  2.142733213e+02 
 1.543476216e-02  2.159763618e+02 
O1 
 5.541069518e-02  3.344275127e+02 
 4.706529547e-02  3.274417614e+02 
 3.363446372e-02  3.287806667e+02 
 1.790181343e-02  3.280807402e+02 
 1.428640925e-03  2.959702123e+02 
 1.570425993e-02  1.621624251e+02 
 4.849576968e-02  1.699841636e+02 
 5.244782266e-02  1.728083693e+02 
 4.948068317e-02  1.746353046e+02 
 4.774433846e-02  1.762221239e+02 
 4.643259348e-02  1.783945125e+02 
 4.551320302e-02  1.809698855e+02 
 4.482267300e-02  1.846600867e+02 
 4.462398871e-02  1.874009592e+02 
 4.464729785e-02  1.904117360e+02 
 4.496297386e-02  1.939065158e+02 
 4.560552469e-02  1.975142730e+02 
 4.658938458e-02  2.011544719e+02 
 4.774959756e-02  2.043331775e+02 
 4.970553457e-02  2.084088630e+02 
 5.254732591e-02  2.128803135e+02 
 5.421931901e-02  2.150501599e+02 
 5.616346168e-02  2.173025803e+02 
 5.793058579e-02  2.191810293e+02 
 5.913759373e-02  2.202395681e+02 
 5.993830381e-02  2.211111514e+02 
 6.096380574e-02  2.220452001e+02 
 6.165219423e-02  2.226083825e+02 
 6.233383492e-02  2.232411217e+02 
 6.315239231e-02  2.238963188e+02 
 6.403233431e-02  2.245717388e+02 
 6.469489973e-02  2.250152319e+02 
 6.518889964e-02  2.253297843e+02 
 6.562622047e-02  2.256085049e+02 
 6.613022705e-02  2.259303099e+02 
 6.663877116e-02  2.262569687e+02 
 6.715351619e-02  2.265933329e+02 
 6.783509198e-02  2.269922779e+02 
 6.830604089e-02  2.272208558e+02 
 6.891793874e-02  2.274627670e+02 
 6.965889973e-02  2.277165521e+02 
 7.040879381e-02  2.279422091e+02 
 7.104379518e-02  2.281109730e+02 
 7.140570089e-02  2.281973855e+02 
 7.185392477e-02  2.283003542e+02 
 7.236216937e-02  2.284146530e+02 
 7.271553099e-02  2.284939997e+02 
 7.332424011e-02  2.286352781e+02 
 7.435866745e-02  2.289027306e+02 
 7.518116117e-02  2.291559679e+02 
 7.595193651e-02  2.294433474e+02 
 7.722575648e-02  2.300860555e+02 
 7.848536560e-02  2.310417134e+02 
 7.959700636e-02  2.322858275e+02 
 8.043814820e-02  2.340700736e+02 
P1 
 2.150157251e-02  4.670124322e+01 
 1.763522774e-02  4.640492288e+01 
 1.487196145e-02  6.206163685e+01 
 1.313708565e-02  8.438152795e+01 
 1.343253851e-02  1.090589286e+02 
 1.510927859e-02  1.306075800e+02 
 2.016237673e-02  1.646851496e+02 
 2.084622773e-02  1.686489747e+02 
 2.005734744e-02  1.685689949e+02 
 1.946755783e-02  1.695017777e+02 
 1.888175642e-02  1.712124113e+02 
 1.834320129e-02  1.734714597e+02 
 1.775037689e-02  1.769959284e+02 
 1.740869657e-02  1.798212029e+02 
 1.711671048e-02  1.831325194e+02 
 1.688823759e-02  1.872570001e+02 
 1.679086471e-02  1.918392784e+02 
 1.685631731e-02  1.967889796e+02 
 1.707308221e-02  2.013628098e+02 
 1.761648899e-02  2.075363862e+02 
 1.863405255e-02  2.145883256e+02 
 1.931317601e-02  2.180634195e+02 
 2.015411825e-02  2.216758872e+02 
 2.095250324e-02  2.246804269e+02 
 2.153651904e-02  2.263523538e+02 
 2.189844052e-02  2.277248776e+02 
 2.239623499e-02  2.291834357e+02 
 2.275050063e-02  2.300500047e+02 
 2.308470052e-02  2.310423955e+02 
 2.350894308e-02  2.320581058e+02 
 2.397921720e-02  2.331024819e+02 
 2.433415989e-02  2.337897528e+02 
 2.460089946e-02  2.342688980e+02 
 2.484281500e-02  2.346852053e+02 
 2.513197855e-02  2.351621884e+02 
 2.543530936e-02  2.356469179e+02 
 2.574782368e-02  2.361371206e+02 
 2.614360313e-02  2.367250850e+02 
 2.640003665e-02  2.370727036e+02 
 2.670073540e-02  2.374779684e+02 
 2.704781371e-02  2.379454066e+02 
 2.738133206e-02  2.383942859e+02 
 2.763096677e-02  2.387708332e+02 
 2.776073178e-02  2.389797984e+02 
 2.791465461e-02  2.392280645e+02 
 2.808527799e-02  2.394881326e+02 
 2.820304675e-02  2.396558004e+02 
 2.840583659e-02  2.399253634e+02 
 2.876380884e-02  2.403543464e+02 
 2.907583267e-02  2.406881534e+02 
 2.938830236e-02  2.410264909e+02 
 2.993483675e-02  2.417386430e+02 
 3.049713634e-02  2.427834050e+02 
 3.097307111e-02  2.441459716e+02 
 3.129803343e-02  2.461202104e+02 
K1 
 7.499743317e-02  3.715555304e+01 
 6.108250070e-02  3.560325573e+01 
 4.913036885e-02  4.954051373e+01 
 3.967351973e-02  7.241928343e+01 
 3.801321856e-02  1.030125437e+02 
 4.306687859e-02  1.292264159e+02 
 6.085102808e-02  1.635633379e+02 
 6.303819886e-02  1.676354516e+02 
 6.046459551e-02  1.670030707e+02 
 5.904692230e-02  1.676152943e+02 
 5.774738192e-02  1.691628788e+02 
 5.655464564e-02  1.713475147e+02 
 5.519765454e-02  1.748275683e+02 
 5.438129927e-02  1.776370847e+02 
 5.365587727e-02  1.809375587e+02 
 5.306456368e-02  1.850516585e+02 
 5.279451523e-02  1.896316661e+02 
 5.295640408e-02  1.946134007e+02 
 5.355618045e-02  1.992564293e+02 
 5.512172431e-02  2.055869489e+02 
 5.814876201e-02  2.129162730e+02 
 6.020971807e-02  2.165673366e+02 
 6.279245579e-02  2.203883614e+02 
 6.526720804e-02  2.235840123e+02 
 6.710274427e-02  2.253684616e+02 
 6.822743148e-02  2.268337363e+02 
 6.979493473e-02  2.283937741e+02 
 7.092058993e-02  2.293213357e+02 
 7.197201119e-02  2.303850140e+02 
 7.331846312e-02  2.314744566e+02 
 7.481629702e-02  2.325948998e+02 
 7.594795568e-02  2.333331120e+02 
 7.679962888e-02  2.338475270e+02 
 7.757399362e-02  2.342933782e+02 
 7.850280588e-02  2.348032718e+02 
 7.948043630e-02  2.353203493e+02 
 8.048977736e-02  2.358417369e+02 
 8.176480180e-02  2.364690696e+02 
 8.258714013e-02  2.368424167e+02 
 8.354466250e-02  2.372829925e+02 
 8.464763315e-02  2.377954563e+02 
 8.570494525e-02  2.382907802e+02 
 8.648913366e-02  2.387110935e+02 
 8.689387320e-02  2.389461355e+02 
 8.737208519e-02  2.392263072e+02 
 8.790116988e-02  2.395200037e+02 
 8.826554132e-02  2.397092660e+02 
 8.889349351e-02  2.400121744e+02 
 9.000776122e-02  2.404872223e+02 
 9.099064681e-02  2.408466600e+02 
 9.198612489e-02  2.412006521e+02 
 9.376035307e-02  2.419284772e+02 
 9.563760074e-02  2.429965091e+02 
 9.730442729e-02  2.444058593e+02 
 9.863279518e-02  2.464646544e+02 
N2 
 1.126322634e-01  3.222566593e+02 
 1.108746562e-01  3.233791559e+02 
 1.130846707e-01  3.245941583e+02 
 1.146530699e-01  3.256229742e+02 
 1.139749630e-01  3.267058559e+02 
 1.104230809e-01  3.271239718e+02 
 9.968381873e-02  3.248307352e+02 
 9.540828704e-02  3.256909862e+02 
 9.078124504e-02  3.289000816e+02 
 8.765825582e-02  3.306160669e+02 
 8.458898744e-02  3.318419471e+02 
 8.154938441e-02  3.326447839e+02 
 7.736066374e-02  3.332228036e+02 
 7.417488303e-02  3.334017649e+02 
 7.058774655e-02  3.334397708e+02 
 6.625638771e-02  3.333563517e+02 
 6.144035858e-02  3.330717440e+02 
 5.599745245e-02  3.323976040e+02 
 5.065335045e-02  3.313730845e+02 
 4.261995025e-02  3.288574309e+02 
 3.212661813e-02  3.233635935e+02 
 2.636507729e-02  3.180460110e+02 
 2.014825979e-02  3.067967051e+02 
 1.582446117e-02  2.861405168e+02 
 1.450704496e-02  2.693333892e+02 
 1.516580767e-02  2.528552734e+02 
 1.714133884e-02  2.369473054e+02 
 1.891933814e-02  2.288556368e+02 
 2.169949522e-02  2.219850012e+02 
 2.485169478e-02  2.162925403e+02 
 2.838073430e-02  2.118359420e+02 
 3.079047602e-02  2.094160773e+02 
 3.254396528e-02  2.079081415e+02 
 3.408781011e-02  2.067163925e+02 
 3.578719732e-02  2.054548059e+02 
 3.748100330e-02  2.042671498e+02 
 3.934490542e-02  2.031983373e+02 
 4.189029987e-02  2.020525271e+02 
 4.357374046e-02  2.014085653e+02 
 4.593709285e-02  2.007428112e+02 
 4.888343828e-02  2.000457444e+02 
 5.199381101e-02  1.994908495e+02 
 5.517284976e-02  1.992290475e+02 
 5.717278323e-02  1.991544166e+02 
 5.970439280e-02  1.991218670e+02 
 6.253136704e-02  1.991601385e+02 
 6.447923765e-02  1.992313442e+02 
 6.778847783e-02  1.994279831e+02 
 7.315274691e-02  1.999063174e+02 
 7.708959322e-02  2.003661126e+02 
 8.076476408e-02  2.008725762e+02 
 8.695760652e-02  2.019230031e+02 
 9.338298894e-02  2.033759400e+02 
 9.958829185e-02  2.052638562e+02 
 1.051368581e-01  2.077680889e+02 
M2 
 5.240377987e-01  3.441685129e+02 
 5.173297611e-01  3.451531616e+02 
 5.270601175e-01  3.461135749e+02 
 5.332424403e-01  3.468591847e+02 
 5.286515502e-01  3.477242358e+02 
 5.094730127e-01  3.479842039e+02 
 4.494193012e-01  3.448673304e+02 
 4.234490447e-01  3.454668154e+02 
 4.038322615e-01  3.487549161e+02 
 3.912674918e-01  3.504725573e+02 
 3.791410641e-01  3.517729314e+02 
 3.669244464e-01  3.527094841e+02 
 3.491811635e-01  3.534757275e+02 
 3.348676274e-01  3.537462371e+02 
 3.180649073e-01  3.538118514e+02 
 2.973499535e-01  3.536791026e+02 
 2.746206991e-01  3.533353847e+02 
 2.499900073e-01  3.527227807e+02 
 2.268507776e-01  3.519654123e+02 
 1.928396025e-01  3.501967501e+02 
 1.464709793e-01  3.458420416e+02 
 1.194542122e-01  3.412212550e+02 
 8.872508351e-02  3.310412656e+02 
 6.499485130e-02  3.103032564e+02 
 5.686703398e-02  2.911339591e+02 
 5.912928299e-02  2.713638325e+02 
 6.897897599e-02  2.529821698e+02 
 7.804021433e-02  2.443771918e+02 
 9.161917299e-02  2.375184771e+02 
 1.068384926e-01  2.321587630e+02 
 1.233323067e-01  2.280843999e+02 
 1.346010448e-01  2.258859418e+02 
 1.428510246e-01  2.245530164e+02 
 1.500859042e-01  2.235275355e+02 
 1.580219783e-01  2.224591405e+02 
 1.661080598e-01  2.215250059e+02 
 1.746735649e-01  2.206774553e+02 
 1.862158757e-01  2.197121392e+02 
 1.937588911e-01  2.191130983e+02 
 2.047424120e-01  2.184798726e+02 
 2.186446460e-01  2.177617492e+02 
 2.334152962e-01  2.171490947e+02 
 2.487815006e-01  2.168404569e+02 
 2.586047060e-01  2.167619469e+02 
 2.711819900e-01  2.167670086e+02 
 2.850875214e-01  2.168274745e+02 
 2.946170984e-01  2.168946074e+02 
 3.107106676e-01  2.170654736e+02 
 3.365108838e-01  2.174884599e+02 
 3.554369448e-01  2.179330791e+02 
 3.733226245e-01  2.184725185e+02 
 4.041658042e-01  2.196892353e+02 
 4.369571245e-01  2.213907962e+02 
 4.694161076e-01  2.235412653e+02 
 4.996392688e-01  2.263432472e+02 
S2 
 1.279192653e-01  2.329192574e+01 
 1.286798921e-01  2.412537196e+01 
 1.307545196e-01  2.382932806e+01 
 1.313657220e-01  2.320512014e+01 
 1.294304790e-01  2.279228784e+01 
 1.236093423e-01  2.204572755e+01 
 1.086271336e-01  1.802140314e+01 
 1.039490346e-01  1.778566934e+01 
 9.979131027e-02  1.961985653e+01 
 9.683825614e-02  2.064702104e+01 
 9.381046033e-02  2.142981468e+01 
 9.058609643e-02  2.197846398e+01 
 8.570376287e-02  2.234589111e+01 
 8.166737642e-02  2.233084614e+01 
 7.686706140e-02  2.201511146e+01 
 7.092174157e-02  2.130763272e+01 
 6.433353845e-02  2.012083671e+01 
 5.711084366e-02  1.824893900e+01 
 5.035060316e-02  1.595614725e+01 
 4.064971250e-02  1.112300277e+01 
 2.855019620e-02  3.626354626e-01 
 2.239734595e-02  3.493212463e+02 
 1.714222028e-02  3.263611895e+02 
 1.666431191e-02  2.944587206e+02 
 1.849745863e-02  2.775290412e+02 
 2.191208486e-02  2.671506619e+02 
 2.641285501e-02  2.588760002e+02 
 2.951463741e-02  2.550788258e+02 
 3.366971949e-02  2.522780295e+02 
 3.817618544e-02  2.499331942e+02 
 4.304275661e-02  2.482089904e+02 
 4.632179745e-02  2.471995587e+02 
 4.871760665e-02  2.465821115e+02 
 5.083368391e-02  2.461054778e+02 
 5.316318072e-02  2.455703233e+02 
 5.550765069e-02  2.450695473e+02 
 5.815271278e-02  2.446490100e+02 
 6.184465260e-02  2.440972741e+02 
 6.429185321e-02  2.436459189e+02 
 6.779802452e-02  2.430469595e+02 
 7.224719834e-02  2.423032563e+02 
 7.702766981e-02  2.415872104e+02 
 8.204086959e-02  2.410853123e+02 
 8.523640990e-02  2.408492230e+02 
 8.930984972e-02  2.406169903e+02 
 9.388814195e-02  2.404456201e+02 
 9.706306201e-02  2.403803511e+02 
 1.024911434e-01  2.403631375e+02 
 1.113612689e-01  2.405500995e+02 
 1.179531331e-01  2.408704516e+02 
 1.242029208e-01  2.413452696e+02 
 1.349671910e-01  2.424952342e+02 
 1.464551741e-01  2.440772336e+02 
 1.579978141e-01  2.459559647e+02 
 1.688838394e-01  2.483939454e+02 
K2 
 3.442652271e-02  2.391230451e+01 
 3.472610707e-02  2.454958635e+01 
 3.523773081e-02  2.404127054e+01 
 3.533670958e-02  2.317865318e+01 
 3.473145117e-02  2.243039279e+01 
 3.323658236e-02  2.119469792e+01 
 3.014562149e-02  1.662110854e+01 
 2.899659194e-02  1.662468319e+01 
 2.773825593e-02  1.847506667e+01 
 2.690915621e-02  1.939138083e+01 
 2.610043764e-02  2.006119328e+01 
 2.526369436e-02  2.051306055e+01 
 2.401484890e-02  2.081422925e+01 
 2.298104933e-02  2.083386728e+01 
 2.173500650e-02  2.067352352e+01 
 2.015541628e-02  2.032200406e+01 
 1.834761347e-02  1.974069899e+01 
 1.629145943e-02  1.876340557e+01 
 1.429929606e-02  1.744270725e+01 
 1.134293559e-02  1.399202290e+01 
 7.596009106e-03  3.806799355e+00 
 5.723687220e-03  3.512426333e+02 
 4.283009793e-03  3.227833973e+02 
 4.550472335e-03  2.861953793e+02 
 5.337602183e-03  2.694275274e+02 
 6.472033683e-03  2.601630546e+02 
 7.869189249e-03  2.526425980e+02 
 8.793911809e-03  2.490049403e+02 
 9.989233132e-03  2.463154104e+02 
 1.126144100e-02  2.438330331e+02 
 1.261557751e-02  2.418603940e+02 
 1.352019393e-02  2.406721369e+02 
 1.417655587e-02  2.399265860e+02 
 1.475227079e-02  2.393497787e+02 
 1.538229655e-02  2.387246458e+02 
 1.601155255e-02  2.381567592e+02 
 1.671904363e-02  2.377178361e+02 
 1.770993663e-02  2.372311044e+02 
 1.837563630e-02  2.368805001e+02 
 1.932953677e-02  2.364407235e+02 
 2.052925817e-02  2.359111661e+02 
 2.181240204e-02  2.354425626e+02 
 2.315072012e-02  2.351906798e+02 
 2.400128422e-02  2.351022082e+02 
 2.508420996e-02  2.350437572e+02 
 2.630170109e-02  2.350511181e+02 
 2.714763941e-02  2.351015500e+02 
 2.859788379e-02  2.352668390e+02 
 3.098254929e-02  2.357157554e+02 
 3.277376594e-02  2.361824626e+02 
 3.448673219e-02  2.367153940e+02 
 3.745501915e-02  2.378095235e+02 
 4.062265903e-02  2.392937301e+02 
 4.376109948e-02  2.411860210e+02 
 4.665557947e-02  2.436850780e+02 
90   	 	 ! ANGINN 
0 0 0 0   	 ! NOUTE, TOUTSE, TOUTFE, NSPOOLE 
0  	 	 ! NSTAE 
0 0 0 0  	 ! NOUTV, TOUTV, TOUTFV, NSPOOLV 
0  	 	 ! NSTAV 
0 0 0 0  	 ! NOUTW, TOUTW, TOUTFW, NSPOOLW 
0  	 	 ! NSTAW 
-5 0 15 240  	 ! NOUTGE, ... 
-5 0 15 240   ! NOUTGV, ... 
-5 0 15 240   ! NOUTGW, ... 
8  	 	 ! NFREQ 
Q1 
 6.495854130e-05 1.187167 145.183075 
O1 
 6.759774407e-05 1.178120 148.988139 
P1 
 7.252294576e-05 0.990395 122.508321 
K1 
 7.292115851e-05 1.109694 235.364545 
N2 
 1.378796998e-04 0.967557 19.829696 
M2 
 1.405189028e-04 0.964086 23.057068 
S2 
 1.454441043e-04 1.002036 0.024473 
K2 
 1.458423170e-04 1.308173 290.362727 
0 0 0 0  	 ! THAS, THAF, NHAINC, FMV 
0 0 0 0   	 ! NHASE, NHASV, NHAGE, NHAGV 
0 0  	  ! NHSTAR, NHSINC 
1 0   1.000000000e-10 25  	 ! ITITER, ISLDIA, CONVCR, ITMAX 
OceanMesh2D
Notre Dame CHL
OceanMesh2D
History: None
https://github.com/CHLNDDEV/OceanMesh2D/
Comments: None
Host: Name
Metric, MSL
name@instit.edu
2005-08-19 00:00:00
! -- Begin met Control Namelist -- 
&metControl
WindDragLimit = 2.500000e-03,
DragLawString = "Powell",
outputWindDrag = T,
invertedBarometerOnElevationBoundary = F,
/
! -- End met Control Namelist -- 
