GBAYSUBGRIDEXAMPLE
TIDESSIMULATION 
1         	 ! NFOVER 
0        	 ! NABOUT 
100        	 ! NSCREEN 
0        	 ! IHOT 
2        	 ! ICS 
122213        	 ! IM 
1        	 ! NOLIBF 
2        	 ! NOLIFA 
1        	 ! NOLICA 
1        	 ! NOLICAT 
4        	 ! NWP 
primitive_weighting_in_continuity_equation
mannings_n_at_sea_floor
average_horizontal_eddy_viscosity_in_sea_water_wrt_depth
advection_state
1   	 	 ! NCOR 
0   	 	 ! NTIP 
0   	 	 ! NWS 
1   	 	 ! NRAMP 
9.810000   	 ! G  
-3   	 	 ! TAU0 
2  	 	 ! DTDP 
0  	 	 ! STATIM 
0  	 	 ! REFTIM 
2   	 	 ! RNDY 
1  	 	 ! DRAMP 
0.4 0.2 0.4  	 ! A00, B00, C00 
0.1 0 0 0.01    	 ! H0, 2*dummy, VELMIN 
-94.812264 29.379631  	 	 ! SLAM0, SFEA0 
0.002500     	 ! CF 
50.00000     	 ! ELSM 
0.000000   	 ! CORI 
8   	 	 ! NTIF 
Q1 
0.019303  6.495854130e-05 0.695000 0.821510 171.233024   	 !  TPK, AMIGT, ETRF, FFT, FACET 
O1 
0.100818  6.759774407e-05 0.695000 0.817312 114.854140   	 !  TPK, AMIGT, ETRF, FFT, FACET 
P1 
0.047037  7.252294576e-05 0.706000 1.011451 94.339723   	 !  TPK, AMIGT, ETRF, FFT, FACET 
K1 
0.141909  7.292115851e-05 0.736000 0.889161 262.133249   	 !  TPK, AMIGT, ETRF, FFT, FACET 
N2 
0.046510  1.378796998e-04 0.693000 1.037616 71.604457   	 !  TPK, AMIGT, ETRF, FFT, FACET 
M2 
0.242922  1.405189028e-04 0.693000 1.036371 15.504358   	 !  TPK, AMIGT, ETRF, FFT, FACET 
S2 
0.113308  1.454441043e-04 0.693000 0.998004 0.039954   	 !  TPK, AMIGT, ETRF, FFT, FACET 
K2 
0.030779  1.458423170e-04 0.693000 0.757507 344.712685   	 !  TPK, AMIGT, ETRF, FFT, FACET 
8   	 	 ! NBFR 
Q1  
 6.495854130e-05 0.821510 171.233024 
O1  
 6.759774407e-05 0.817312 114.854140 
P1  
 7.252294576e-05 1.011451 94.339723 
K1  
 7.292115851e-05 0.889161 262.133249 
N2  
 1.378796998e-04 1.037616 71.604457 
M2  
 1.405189028e-04 1.036371 15.504358 
S2  
 1.454441043e-04 0.998004 0.039954 
K2  
 1.458423170e-04 0.757507 344.712685 
Q1 
 4.724366084e-02      13.09674045 
 4.707599307e-02      12.49905301 
 4.685841674e-02      11.69640386 
 4.679509669e-02      11.57268857 
 4.668684667e-02      11.46155825 
 4.656565987e-02      11.33674744 
 4.650498970e-02      11.27399128 
 4.644287058e-02      11.20868834 
 4.638072802e-02       11.1426781 
 4.630085910e-02      11.05705269 
 4.623799556e-02      10.98875494 
 4.614047905e-02      10.88273439 
 4.604355959e-02       10.7760718 
 4.589660578e-02       10.6118466 
 4.576802678e-02      10.46757517 
 4.561481694e-02      10.31526733 
 4.546159756e-02      10.18423647 
 4.530853349e-02      10.05423074 
 4.515384168e-02      9.920771565 
 4.492424474e-02      9.720051277 
 4.478175887e-02      9.595687591 
 4.466528301e-02       9.48895719 
 4.456168343e-02      9.394950963 
 4.448631792e-02       9.32574548 
 4.435560758e-02      9.206172682 
 4.422855237e-02      9.088352611 
 4.404743737e-02      8.918745719 
 4.389437234e-02      8.774664118 
 4.370792560e-02      8.607066471 
 4.359603842e-02      8.513500635 
 4.351347982e-02      8.444503893 
 4.340002952e-02      8.350022219 
 4.328813811e-02      8.255727896 
 4.317846172e-02      8.170937019 
 4.306424487e-02      8.064618404 
 4.292465643e-02      7.943802156 
 4.272681380e-02      7.771127263 
 4.250333367e-02      7.572779032 
 4.228159298e-02      7.373067573 
 4.214083020e-02       7.24426349 
 4.203098257e-02      7.143473615 
 4.180809609e-02      6.937488555 
 4.167522382e-02      6.815085381 
 4.154664017e-02      6.697638784 
 4.129263480e-02      6.464698698 
 4.103853275e-02      6.227108451 
 4.094232775e-02      6.137650966 
 4.086355952e-02      6.061265216 
 4.070816978e-02       5.91764029 
 4.057909200e-02      5.850440078 
 4.057476408e-02       5.93898078 
 4.055864900e-02      6.019650799 
 4.055088082e-02       6.08954283 
 4.054498471e-02       6.13591928 
 4.053927204e-02      6.194928914 
 4.052478228e-02      6.321823767 
 4.051797295e-02      6.380605539 
 4.050561414e-02      6.496599479 
 4.049852779e-02      6.554801832 
 4.048279603e-02      6.682427293 
 4.047201575e-02      6.763093817 
 4.045955363e-02      6.856058333 
 4.044848888e-02      6.925150582 
 4.043947793e-02      6.982990921 
 4.043086781e-02      7.041792217 
 4.041535191e-02      7.143059372 
 4.040403320e-02      7.214944472 
 4.039255567e-02       7.29621778 
 4.038335330e-02      7.354731072 
 4.036761550e-02      7.444872631 
 4.035510678e-02      7.512668969 
 4.033605781e-02      7.599091981 
 4.031448422e-02      7.684119538 
 4.029729257e-02      7.746822953 
 4.027550564e-02      7.817297552 
 4.025394964e-02      7.888292477 
 4.023350367e-02      7.960502195 
 4.021738218e-02      8.010762947 
 4.020497423e-02      8.052257586 
 4.020628408e-02      8.127304231 
 4.017473746e-02       8.15447999 
 4.015128765e-02      8.220635651 
 4.013262326e-02      8.265151147 
 4.010008589e-02      8.328520197 
 4.005595300e-02      8.400321084 
 4.002795202e-02      8.438403165 
 4.000744949e-02      8.461534987 
 3.997689534e-02      8.494724237 
 3.995103436e-02      8.523106191 
 3.992593140e-02      8.552311236 
 3.990059715e-02        8.5805982 
 3.987566288e-02      8.610141725 
 3.983499678e-02      8.655281923 
 3.979890183e-02      8.691782719 
 3.977481974e-02      8.707813742 
 3.973947567e-02      8.728708416 
 3.971424531e-02      8.740847977 
 3.968158540e-02      8.752014105 
 3.964782027e-02      8.760192178 
 3.958356966e-02      8.766293731 
 3.951778174e-02      8.769868051 
 3.946756050e-02      8.773068286 
 3.943063770e-02      8.775201558 
 3.938747067e-02      8.777512506 
 3.935084603e-02      8.779292784 
 3.932176211e-02      8.781317603 
 3.926254126e-02      8.775273416 
 3.922423562e-02      8.767333816 
 3.915610301e-02      8.745134968 
 3.909328102e-02      8.714961093 
 3.905330023e-02       8.69131945 
 3.899767470e-02      8.656461133 
 3.908169759e-02      8.803717381 
 3.918311332e-02      8.962962403 
 3.926353024e-02      9.088474157 
 3.936846592e-02      9.251386209 
O1 
 1.745870596e-01      18.20462218 
 1.741477456e-01       17.7419003 
 1.735903466e-01      17.12378717 
 1.735415724e-01      17.05019728 
 1.734705984e-01      17.02144971 
 1.734002671e-01      16.98982358 
 1.733615966e-01      16.97378973 
 1.733177165e-01      16.95680141 
 1.732705433e-01      16.93943237 
 1.732059076e-01      16.91669408 
 1.731516558e-01      16.89833486 
 1.730645034e-01      16.86987639 
 1.729726895e-01      16.84100991 
 1.728251895e-01      16.79618546 
 1.726978162e-01      16.75724412 
 1.725305211e-01      16.72165003 
 1.723207806e-01      16.69683683 
 1.721184684e-01      16.67321491 
 1.719100942e-01      16.64859129 
 1.715928155e-01      16.61135618 
 1.713926785e-01      16.58896289 
 1.712245162e-01      16.56794999 
 1.710745040e-01      16.55009754 
 1.709644198e-01      16.53678031 
 1.707727616e-01       16.5143284 
 1.705847561e-01      16.49197782 
 1.703153036e-01      16.45990479 
 1.700909067e-01      16.43309855 
 1.698177470e-01      16.40414958 
 1.696490267e-01      16.38982476 
 1.695265752e-01      16.37938741 
 1.693588604e-01      16.36555936 
 1.691925698e-01      16.35155275 
 1.690302660e-01      16.34317515 
 1.688565602e-01      16.32302236 
 1.686449650e-01      16.30488018 
 1.683427597e-01      16.27920125 
 1.679983893e-01      16.24941575 
 1.676541630e-01      16.21941504 
 1.674345837e-01      16.19979501 
 1.672629231e-01       16.1847193 
 1.669165452e-01      16.15429743 
 1.667119701e-01      16.13633309 
 1.665145182e-01      16.11883282 
 1.661279030e-01       16.0848343 
 1.657382692e-01      16.04990221 
 1.655897110e-01      16.03754631 
 1.654679882e-01      16.02559494 
 1.652261590e-01      16.00721668 
 1.650178871e-01      16.02628799 
 1.650024823e-01      16.08592571 
 1.649716143e-01      16.14635555 
 1.649579653e-01      16.19583571 
 1.649482971e-01        16.229064 
 1.649389114e-01      16.27048423 
 1.649152110e-01      16.36067553 
 1.649040915e-01      16.40252337 
 1.648839883e-01      16.48461944 
 1.648728315e-01       16.5263238 
 1.648509967e-01      16.61836793 
 1.648375729e-01      16.67725133 
 1.648237467e-01      16.74540689 
 1.648118362e-01      16.79716964 
 1.648030153e-01      16.84049233 
 1.647950099e-01      16.88426947 
 1.647801269e-01      16.96002405 
 1.647690776e-01      17.01396657 
 1.647589004e-01      17.07430678 
 1.647499731e-01      17.11823068 
 1.647321432e-01      17.18658514 
 1.647157490e-01      17.23818724 
 1.646872783e-01      17.30535957 
 1.646518435e-01      17.37267572 
 1.646216892e-01      17.42280924 
 1.645816229e-01      17.48024871 
 1.645419847e-01      17.53791617 
 1.645046401e-01       17.5958327 
 1.644749344e-01      17.63710341 
 1.644522120e-01      17.67072393 
 1.644587029e-01      17.71946116 
 1.643968108e-01      17.75337554 
 1.643466417e-01      17.80812715 
 1.643014166e-01      17.84581606 
 1.642157524e-01      17.90150008 
 1.640875924e-01      17.96648427 
 1.639991877e-01      18.00204882 
 1.639333897e-01       18.0248907 
 1.638359482e-01      18.05818503 
 1.637533817e-01      18.08655293 
 1.636725140e-01      18.11507839 
 1.635914726e-01      18.14317796 
 1.635109568e-01      18.17184592 
 1.633809968e-01      18.21681146 
 1.632603818e-01      18.25290559 
 1.631799581e-01      18.27116812 
 1.630582931e-01      18.29521616 
 1.629698653e-01      18.31004319 
 1.628549250e-01      18.32593863 
 1.627339801e-01       18.3394865 
 1.624990836e-01       18.3574589 
 1.622576082e-01       18.3737828 
 1.620726972e-01      18.38644965 
 1.619370263e-01      18.39569388 
 1.617786549e-01      18.40645189 
 1.616445352e-01      18.41553159 
 1.615365127e-01      18.42273952 
 1.613225853e-01      18.43153332 
 1.611846462e-01      18.43428302 
 1.609411872e-01      18.43361592 
 1.607197664e-01      18.42658743 
 1.605794269e-01      18.41893108 
 1.603852250e-01      18.40715956 
 1.604852481e-01      18.43609343 
 1.606441620e-01      18.46989932 
 1.607722567e-01      18.49745355 
 1.609414513e-01      18.53426997 
P1 
 8.354429525e-02      9.397033054 
 8.294074300e-02      9.000583471 
 8.213490709e-02      8.470976153 
 8.191166132e-02      8.459800081 
 8.157234807e-02      8.541572369 
 8.119119206e-02      8.637602173 
 8.100018866e-02      8.685147951 
 8.080642117e-02      8.731852018 
 8.061347143e-02      8.777321381 
 8.036626496e-02      8.834393716 
 8.017277863e-02      8.877830773 
 7.987170361e-02      8.945178866 
 7.957347511e-02      9.010177279 
 7.912276219e-02      9.105415637 
 7.872631374e-02       9.19091236 
 7.827355401e-02      9.309854661 
 7.784940154e-02       9.43762655 
 7.742487363e-02      9.571777086 
 7.699661954e-02      9.706665356 
 7.636100406e-02      9.906579187 
 7.596491518e-02      10.03292301 
 7.564472279e-02      10.13124919 
 7.535839085e-02      10.22093801 
 7.515034807e-02      10.28586824 
 7.478834461e-02      10.40042557 
 7.443670151e-02      10.51170363 
 7.393494998e-02      10.67189878 
 7.351010729e-02      10.81141334 
 7.300892298e-02      10.99192818 
 7.272205789e-02      11.10603597 
 7.251106998e-02      11.19202679 
 7.222066960e-02      11.31215005 
 7.193451243e-02      11.43080681 
 7.164947232e-02      11.55662614 
 7.136205851e-02      11.66959761 
 7.100526118e-02      11.81952748 
 7.049933700e-02      12.03454656 
 6.992820715e-02      12.28010603 
 6.936166449e-02       12.5277244 
 6.900233836e-02      12.68672212 
 6.872177349e-02       12.8127512 
 6.815244579e-02      13.07333841 
 6.781739454e-02       13.2281733 
 6.750009638e-02       13.3741018 
 6.687500923e-02      13.66598749 
 6.625004972e-02      13.96309023 
 6.601303978e-02      14.07864845 
 6.581982232e-02      14.17132953 
 6.543641536e-02      14.36384462 
 6.510398180e-02      14.57569418 
 6.506830282e-02       14.6679655 
 6.500241413e-02      14.77755661 
 6.496173599e-02      14.85896779 
 6.493265851e-02      14.91454702 
 6.490047736e-02      14.98162519 
 6.482526875e-02      15.13101305 
 6.479014711e-02      15.20064603 
 6.472368917e-02      15.33621365 
 6.468807608e-02      15.40613088 
 6.461030127e-02      15.55910069 
 6.455941149e-02        15.657152 
 6.450112117e-02      15.76990101 
 6.445343936e-02      15.85709697 
 6.441438466e-02       15.9294539 
 6.437612385e-02      16.00203734 
 6.430843772e-02      16.12880158 
 6.425960229e-02      16.21968008 
 6.420782468e-02      16.32001678 
 6.416811046e-02      16.39434423 
 6.410387080e-02      16.51034706 
 6.405515014e-02      16.59653139 
 6.398658854e-02      16.70987783 
 6.391364066e-02      16.82389028 
 6.385788261e-02         16.90814 
 6.379023096e-02      17.00538624 
 6.372315942e-02      17.10275931 
 6.365863209e-02      17.19935768 
 6.360908859e-02      17.27020637 
 6.357042541e-02      17.32714604 
 6.355886231e-02      17.38694991 
 6.347609160e-02      17.46707071 
 6.340706010e-02      17.55998018 
 6.335485214e-02      17.62355203 
 6.326806729e-02       17.7180523 
 6.315576599e-02      17.82606246 
 6.308753408e-02      17.88328602 
 6.303870691e-02      17.92063667 
 6.296607318e-02      17.97583992 
 6.290459541e-02      18.02279502 
 6.284480495e-02      18.06918325 
 6.278458199e-02      18.11556991 
 6.272519244e-02      18.16204355 
 6.262865398e-02      18.23663797 
 6.254520371e-02      18.29662765 
 6.249126598e-02      18.33049893 
 6.241367067e-02      18.37575624 
 6.235930336e-02       18.4049148 
 6.229001499e-02       18.4389641 
 6.221967052e-02      18.47020032 
 6.208908975e-02      18.51930681 
 6.195624015e-02      18.56708507 
 6.185492191e-02      18.60362716 
 6.178041945e-02      18.63059509 
 6.169330627e-02      18.66223663 
 6.161937870e-02      18.68919111 
 6.156062362e-02       18.7099719 
 6.143754274e-02      18.74883999 
 6.135613288e-02      18.77117051 
 6.120796831e-02      18.80604366 
 6.106746440e-02      18.83300079 
 6.097610852e-02      18.84717081 
 6.084830140e-02      18.86627985 
 6.104780378e-02      18.76432331 
 6.128750586e-02      18.65824139 
 6.147767354e-02      18.57681193 
 6.172587461e-02      18.47364292 
K1 
 2.007827805e-01      11.48991253 
 1.995637834e-01      11.23326325 
 1.979432524e-01      10.89379837 
 1.976007125e-01      10.91878956 
 1.971436955e-01      11.04409452 
 1.966372995e-01      11.18802162 
 1.963810652e-01      11.26001065 
 1.961204601e-01      11.33155015 
 1.958599291e-01      11.40188749 
 1.955246059e-01      11.49104683 
 1.952614135e-01      11.55967191 
 1.948491872e-01      11.66670496 
 1.944392193e-01       11.7712249 
 1.938173883e-01       11.9264407 
 1.932713812e-01      12.06460964 
 1.926606536e-01      12.23910959 
 1.920917669e-01      12.41483379 
 1.915284829e-01      12.59588228 
 1.909602776e-01      12.77786486 
 1.901144057e-01      13.04780041 
 1.895846267e-01      13.21816989 
 1.891594037e-01      13.35119535 
 1.887775521e-01      13.47221713 
 1.885003554e-01       13.5597993 
 1.880169130e-01      13.71394942 
 1.875478593e-01      13.86343882 
 1.868793494e-01       14.0778147 
 1.863169754e-01      14.26236745 
 1.856675936e-01      14.48922583 
 1.853035470e-01       14.6248143 
 1.850383733e-01      14.72581346 
 1.846737229e-01      14.86635813 
 1.843149838e-01      15.00474759 
 1.839512747e-01      15.15167139 
 1.835976429e-01      15.28216879 
 1.831508599e-01      15.45557326 
 1.825174984e-01      15.70315499 
 1.818041021e-01      15.98407682 
 1.810981890e-01      16.26526615 
 1.806520171e-01      16.44458971 
 1.803040661e-01       16.5860737 
 1.796017176e-01      16.87618635 
 1.791929643e-01      17.04415197 
 1.788102711e-01      17.19701263 
 1.780613821e-01       17.4984106 
 1.773148798e-01      17.80223689 
 1.770311014e-01      17.91995329 
 1.768018515e-01      18.01353874 
 1.763417889e-01      18.20867154 
 1.759072227e-01      18.43242785 
 1.758029371e-01      18.54288866 
 1.756627265e-01      18.67088156 
 1.755664683e-01      18.76669757 
 1.755001529e-01      18.83188941 
 1.754227518e-01      18.91088853 
 1.752486415e-01      19.08631566 
 1.751679517e-01      19.16803533 
 1.750133971e-01      19.32727736 
 1.749330700e-01      19.40903975 
 1.747586878e-01      19.58660401 
 1.746469108e-01      19.69949157 
 1.745194303e-01      19.82854387 
 1.744191911e-01      19.92745846 
 1.743368561e-01      20.00924596 
 1.742554082e-01      20.09133014 
 1.741131664e-01      20.23452497 
 1.740115023e-01      20.33709031 
 1.739018074e-01      20.45044737 
 1.738196758e-01      20.53426247 
 1.736872886e-01       20.6649091 
 1.735848078e-01      20.76195717 
 1.734423756e-01      20.88928007 
 1.732913839e-01      21.01708606 
 1.731749317e-01      21.11142826 
 1.730346674e-01       21.2200909 
 1.728952355e-01      21.32887527 
 1.727593492e-01      21.43687274 
 1.726580702e-01      21.51585881 
 1.725779575e-01      21.57939788 
 1.725209464e-01      21.64831095 
 1.723823962e-01      21.73551605 
 1.722381489e-01      21.84032205 
 1.721273369e-01      21.91308651 
 1.719425287e-01      22.02276479 
 1.716972487e-01      22.15132235 
 1.715439173e-01      22.22169803 
 1.714351036e-01      22.26821716 
 1.712745803e-01      22.33681616 
 1.711385900e-01      22.39516247 
 1.710049168e-01      22.45294545 
 1.708715094e-01      22.51058186 
 1.707384789e-01      22.56847928 
 1.705252205e-01      22.66107413 
 1.703365126e-01      22.73727736 
 1.702179840e-01      22.78075275 
 1.700444940e-01      22.84025082 
 1.699222883e-01      22.87940492 
 1.697678648e-01      22.92580577 
 1.696100573e-01      22.96963973 
 1.693154936e-01      23.04207039 
 1.690159058e-01      23.11353012 
 1.687866669e-01      23.16833827 
 1.686185692e-01      23.20868024 
 1.684224410e-01      23.25591335 
 1.682564197e-01      23.29604816 
 1.681225393e-01      23.32780698 
 1.678542742e-01      23.38851878 
 1.676794075e-01      23.42557114 
 1.673672956e-01      23.48739801 
 1.670794077e-01      23.53980876 
 1.668948799e-01      23.57077615 
 1.666387642e-01      23.61326354 
 1.667755179e-01      23.53603892 
 1.669905740e-01      23.44709599 
 1.671642348e-01      23.37802868 
 1.673940024e-01      23.28962649 
N2 
 3.880435007e-02      252.5149028 
 3.847493987e-02      251.7585436 
 3.805103728e-02      250.7246949 
 3.800202577e-02      250.5255945 
 3.793552348e-02      250.3711853 
 3.786592101e-02       250.193617 
 3.783015540e-02      250.1050605 
 3.779052844e-02      250.0191161 
 3.774890743e-02      249.9357432 
 3.769314622e-02      249.8311664 
 3.764684738e-02      249.7518822 
 3.757445823e-02      249.6279192 
 3.749900370e-02      249.5081709 
 3.737827096e-02      249.3318538 
 3.727385304e-02      249.1732889 
 3.711656605e-02      248.9985056 
 3.690525494e-02      248.8570431 
 3.669830086e-02      248.7094799 
 3.648623426e-02      248.5617195 
 3.616747332e-02      248.3429126 
 3.597030683e-02      248.2045528 
 3.580135947e-02      248.0969232 
 3.565292227e-02      247.9984416 
 3.554389871e-02       247.926908 
 3.535598281e-02      247.8005602 
 3.517158908e-02      247.6771392 
 3.490782223e-02      247.4983345 
 3.468719199e-02      247.3426157 
 3.440359900e-02      247.1546762 
 3.421838682e-02      247.0460691 
 3.408221120e-02      246.9648875 
 3.389632963e-02      246.8518948 
 3.371195292e-02      246.7396004 
 3.354132156e-02      246.6264038 
 3.334076116e-02      246.5118458 
 3.310788045e-02      246.3675303 
 3.277706771e-02      246.1594314 
 3.240108356e-02      245.9188884 
 3.202668172e-02      245.6736512 
 3.178791501e-02      245.5140898 
 3.160205632e-02      245.3874992 
 3.122630405e-02      245.1254623 
 3.099559264e-02      244.9681231 
 3.076030184e-02      244.8160824 
 3.029357158e-02       244.511404 
 2.982451222e-02      244.1952117 
 2.964809084e-02      244.0734793 
 2.950073978e-02      243.9705152 
 2.921794720e-02       243.770241 
 2.903494380e-02      243.6471138 
 2.911860779e-02      243.7230898 
 2.918439745e-02      243.7887344 
 2.924760355e-02      243.8497383 
 2.928895980e-02      243.8901729 
 2.934320281e-02      243.9419861 
 2.945768504e-02      244.0519926 
 2.951056190e-02      244.1026062 
 2.961582649e-02      244.2021205 
 2.966774936e-02      244.2533996 
 2.978145638e-02      244.3781767 
 2.985253388e-02      244.4641675 
 2.993447947e-02      244.5698425 
 2.999362289e-02      244.6541643 
 3.004343165e-02      244.7273988 
 3.009462308e-02      244.8014143 
 3.018202564e-02      244.9285156 
 3.024370368e-02      245.0184023 
 3.031481366e-02      245.1189719 
 3.036497036e-02      245.1915022 
 3.043913926e-02      245.3118747 
 3.049236721e-02      245.4136431 
 3.055470023e-02       245.557628 
 3.061051960e-02      245.7153619 
 3.064856900e-02      245.8431841 
 3.068689064e-02       245.999096 
 3.072599404e-02      246.1557183 
 3.076777073e-02      246.3124751 
 3.079443960e-02      246.4239754 
 3.081765977e-02      246.5145873 
 3.089106389e-02      246.6441827 
 3.087531336e-02      246.7370052 
 3.090334359e-02      246.8998999 
 3.091479560e-02      247.0255036 
 3.091737475e-02      247.2324328 
 3.090053191e-02      247.5125539 
 3.087872676e-02      247.6919426 
 3.085777922e-02      247.8169658 
 3.082591123e-02        247.99986 
 3.079933053e-02      248.1556752 
 3.077484384e-02      248.3118183 
 3.074949609e-02       248.466185 
 3.072591787e-02       248.623174 
 3.068565265e-02      248.8709336 
 3.064419438e-02       249.087927 
 3.060877559e-02      249.2127663 
 3.055265713e-02      249.3937703 
 3.050929782e-02      249.5182474 
 3.044869978e-02      249.6693221 
 3.038194992e-02      249.8201574 
 3.024395073e-02      250.0910402 
 3.010024345e-02      250.3654803 
 2.999123135e-02      250.5785155 
 2.991124503e-02       250.735286 
 2.981792396e-02      250.9189117 
 2.973889269e-02      251.0748858 
 2.967636782e-02      251.2018755 
 2.954161553e-02      251.4236195 
 2.945091087e-02      251.5533249 
 2.928269634e-02      251.7561442 
 2.911941861e-02      251.9091213 
 2.901148793e-02      251.9911512 
 2.885965328e-02      252.0984335 
 2.911961358e-02      252.3237243 
 2.942716620e-02      252.5160507 
 2.967061358e-02      252.6626856 
 2.998776020e-02      252.8475489 
M2 
 1.226156361e-01      262.9162067 
 1.217614518e-01      262.2351128 
 1.206675497e-01      261.3030831 
 1.205835874e-01      261.0963523 
 1.205119822e-01       260.925948 
 1.204488540e-01      260.7282202 
 1.204137112e-01      260.6303844 
 1.203702491e-01      260.5369181 
 1.203213970e-01      260.4473476 
 1.202521172e-01       260.336335 
 1.201911683e-01      260.2535384 
 1.200932378e-01      260.1246273 
 1.199857787e-01      260.0021937 
 1.198043947e-01      259.8257108 
 1.196482044e-01      259.6665882 
 1.193325983e-01      259.5022251 
 1.188165162e-01      259.3925142 
 1.183129178e-01      259.2747623 
 1.177959079e-01      259.1594295 
 1.170154069e-01      258.9922788 
 1.165303719e-01      258.8864257 
 1.161146351e-01      258.8102616 
 1.157482413e-01      258.7391204 
 1.154787556e-01      258.6883014 
 1.150131694e-01      258.5977279 
 1.145553768e-01       258.510688 
 1.138990763e-01      258.3853847 
 1.133514932e-01      258.2745354 
 1.126203704e-01      258.1418034 
 1.121183597e-01      258.0680449 
 1.117496629e-01      258.0121825 
 1.112464093e-01      257.9336903 
 1.107469684e-01      257.8565382 
 1.102822649e-01      257.7727879 
 1.097397746e-01       257.702119 
 1.091066836e-01      257.6055983 
 1.082057110e-01      257.4674177 
 1.071796927e-01      257.3097649 
 1.061558073e-01      257.1504649 
 1.055018081e-01      257.0476738 
 1.049921731e-01      256.9660078 
 1.039626869e-01      256.7961961 
 1.033189237e-01      256.6920661 
 1.026431901e-01      256.5890234 
 1.012995825e-01      256.3806193 
 9.994677988e-02      256.1663736 
 9.943707000e-02      256.0838494 
 9.901110431e-02      256.0151963 
 9.819265744e-02      255.8795061 
 9.766419720e-02       255.780962 
 9.791176155e-02      255.8041792 
 9.811140780e-02      255.8188954 
 9.830453183e-02      255.8353011 
 9.843165995e-02      255.8458626 
 9.859771778e-02      255.8600438 
 9.894878390e-02      255.8893248 
 9.911089961e-02      255.9027651 
 9.943307633e-02      255.9294748 
 9.959350393e-02      255.9440391 
 9.995358600e-02       255.986608 
 1.001842365e-01      256.0196005 
 1.004548486e-01      256.0633081 
 1.006555584e-01      256.1005837 
 1.008262579e-01      256.1341042 
 1.010010194e-01      256.1679544 
 1.012999612e-01      256.2261277 
 1.015111183e-01      256.2673094 
 1.017528954e-01      256.3132209 
 1.019244005e-01      256.3464637 
 1.021840410e-01      256.4065096 
 1.023770989e-01      256.4631315 
 1.026146154e-01       256.549578 
 1.028403903e-01      256.6507277 
 1.030033210e-01      256.7368389 
 1.031797557e-01      256.8457511 
 1.033585225e-01      256.9551171 
 1.035444439e-01      257.0639672 
 1.036685300e-01      257.1420456 
 1.037734846e-01      257.2051459 
 1.040312355e-01      257.2863418 
 1.040327264e-01      257.3599348 
 1.041811068e-01      257.4801083 
 1.042656327e-01      257.5778095 
 1.043574584e-01      257.7462173 
 1.044211493e-01      257.9847362 
 1.044289049e-01      258.1433417 
 1.044177520e-01       258.256207 
 1.043979950e-01      258.4214906 
 1.043826152e-01      258.5620122 
 1.043729737e-01      258.7021346 
 1.043602449e-01      258.8408378 
 1.043532079e-01      258.9811925 
 1.043335429e-01      259.2032553 
 1.042967077e-01      259.4000448 
 1.042422402e-01      259.5167747 
 1.041483299e-01      259.6877974 
 1.040694502e-01      259.8070052 
 1.039504655e-01      259.9541809 
 1.038128909e-01      260.1032516 
 1.035117304e-01      260.3770867 
 1.031945677e-01      260.6556118 
 1.029552118e-01      260.8708617 
 1.027796346e-01      261.0290481 
 1.025749027e-01      261.2140691 
 1.024015797e-01      261.3710244 
 1.022653385e-01      261.4982499 
 1.019565504e-01      261.7274123 
 1.017427998e-01      261.8647705 
 1.013351578e-01       262.087008 
 1.009265622e-01      262.2650534 
 1.006507999e-01      262.3664659 
 1.002605699e-01      262.5023312 
 1.010330001e-01      262.6267564 
 1.019286992e-01      262.7115486 
 1.026368605e-01      262.7754395 
 1.035585457e-01      262.8553823 
S2 
 2.913987547e-02      305.8706718 
 2.898724072e-02      304.6157057 
 2.880216593e-02      302.9158975 
 2.874164564e-02       302.568838 
 2.863088788e-02      302.1759268 
 2.850736474e-02       301.728907 
 2.844690570e-02      301.5039322 
 2.838487471e-02      301.2752477 
 2.832310851e-02      301.0469742 
 2.824431604e-02      300.7536549 
 2.818239704e-02      300.5233325 
 2.808806571e-02      300.1638769 
 2.799493310e-02       299.806344 
 2.785462165e-02      299.2628722 
 2.773389155e-02      298.7804156 
 2.757641151e-02      298.2476897 
 2.740169784e-02      297.7772427 
 2.722834042e-02      297.2991225 
 2.705434246e-02       296.810567 
 2.679973505e-02      296.0752339 
 2.664538791e-02      295.6121788 
 2.651707484e-02      295.2304793 
 2.640522631e-02       294.887609 
 2.632410511e-02      294.6362986 
 2.618558650e-02      294.1966152 
 2.605188958e-02      293.7643709 
 2.586373981e-02       293.139447 
 2.570690145e-02      292.6018106 
 2.550391269e-02      291.9679521 
 2.537169586e-02      291.6101935 
 2.527378163e-02      291.3440194 
 2.514048493e-02      290.9748914 
 2.500959011e-02      290.6065886 
 2.488842658e-02      290.2468134 
 2.475037173e-02       289.857443 
 2.459065152e-02      289.3819304 
 2.436742294e-02      288.6970198 
 2.411892786e-02      287.9064913 
 2.387682145e-02      287.1042177 
 2.372515200e-02      286.5848892 
 2.360848232e-02      286.1748185 
 2.337475506e-02       285.328466 
 2.322765641e-02      284.8311376 
 2.307180723e-02      284.3682353 
 2.276175549e-02      283.4418132 
 2.245685511e-02       282.486333 
 2.234416064e-02      282.1191058 
 2.225065235e-02      281.8119061 
 2.207382863e-02      281.2083903 
 2.196593445e-02       280.771587 
 2.202418431e-02      280.8791138 
 2.206937959e-02      280.9428051 
 2.210993621e-02      281.0133114 
 2.213611491e-02      281.0577017 
 2.217036361e-02      281.1186783 
 2.224280170e-02      281.2428472 
 2.227628697e-02      281.2996233 
 2.234289987e-02      281.4135889 
 2.237534276e-02      281.4683147 
 2.244274537e-02      281.5889935 
 2.248271132e-02      281.6637155 
 2.252671035e-02      281.7502871 
 2.255665421e-02      281.8106475 
 2.258101244e-02      281.8620438 
 2.260609190e-02      281.9154101 
 2.264879163e-02      282.0050194 
 2.267886924e-02      282.0674301 
 2.271367046e-02      282.1407706 
 2.273810575e-02      282.1909828 
 2.277328925e-02      282.2670887 
 2.279733421e-02      282.3264229 
 2.282368635e-02      282.3988915 
 2.284512154e-02      282.4684017 
 2.285810875e-02      282.5203672 
 2.286912777e-02      282.5766757 
 2.288037520e-02      282.6341311 
 2.289287972e-02      282.6953802 
 2.290011812e-02      282.7338498 
 2.290675647e-02      282.7673976 
 2.293660688e-02      282.8777627 
 2.292323902e-02      282.8504381 
 2.292914421e-02      282.9013281 
 2.292936985e-02      282.9342525 
 2.292262850e-02      282.9763595 
 2.290491339e-02      283.0227803 
 2.288892680e-02      283.0473635 
 2.287519392e-02      283.0592394 
 2.285441766e-02      283.0744243 
 2.283688535e-02      283.0877397 
 2.282022389e-02      283.1037542 
 2.280312820e-02      283.1175818 
 2.278666192e-02       283.134404 
 2.275909020e-02      283.1558908 
 2.273267177e-02      283.1715451 
 2.271261931e-02      283.1677403 
 2.268180915e-02      283.1595184 
 2.265874069e-02      283.1497081 
 2.262748435e-02      283.1293903 
 2.259384503e-02      283.1036821 
 2.252633113e-02      283.0408687 
 2.245630113e-02      282.9720533 
 2.240289546e-02      282.9204105 
 2.236362591e-02      282.8817288 
 2.231771592e-02       282.835849 
 2.227876531e-02      282.7962829 
 2.224802723e-02      282.7662255 