Albemarle Pamlico V20051108  ! 30 CHARACTER ALPHANUM RUN DESCRIPTION
ADCIRC V45.08                ! 20 CHARACTER ALPANUMERIC RUN IDENTIFICATION
 1                         ! NFOVER - NONFATAL ERROR OVERRIDE OPTION
 0                         ! NABOUT - ABREVIATED OUTPUT OPTION PARAMETER
 60                        ! NSCREEN - UNIT 6 OUTPUT OPTION PARAMETER
 0                         ! IHOT - HOT START PARAMETER
 2                         ! ICS - COORDINATE SYSTEM SELECTION PARAMETER
 0                         ! IM - MODEL TYPE (0 INDICATES STANDARD DEPTH INTEGRATED MODEL)
 1                         ! NOLIBF - BOTTOM FRICTION TERM SELECTION PARAMETER
 0                         ! NOLIFA - FINITE AMPLITUDE TERM SELECTION PARAMETER
 0                         ! NOLICA - SPATIAL DERIVATIVE PORTION OF CONV. TERM SELECTION PARAMETER
 0                         ! NOLICAT - TIME DERIVATIVE PORTION OF CONVECTIVE TERM SELECTION PARAMETER
 0                         ! NWP - VARIABLE BOTTOM FRICTION AND LATERAL VISCOSITY OPTION PARAMETER
 1                         ! NCOR - VARIABLE CORIOLIS IN SPACE OPTION PARAMETER
 0                         ! NTIP - TIDAL POTENTIAL OPTION PARAMETER
 3                         ! NWS - WIND STRESS AND BAROMETRIC PRESSURE OPTION PARAMETER
 1                         ! NRAMP - RAMP FUNCTION OPTION
 9.81                      ! G - ACCELERATION DUE TO GRAVITY - DETERMINES UNITS
 0.002                     ! TAU0 - WEIGHTING FACTOR IN GWCE
 30.0                      ! DT - TIME STEP (IN SECONDS)
 0.0                       ! STATIM - STARTING TIME (IN DAYS)
 0.0                       ! REFTIM - REFERENCE TIME (IN DAYS)
 00 09 13 00 00 00.        ! IREFYR,IREFMO,IREFDAY,IREFHR,REFSEC
 2 2 36.4 -77.25 2.0 2.0 3600 ! NWLAT,NWLON,WLATMAX,WLONMIN,WLATINC,WLONINC,WTIMINC
 2.0                       ! RNDAY - TOTAL LENGTH OF SIMULATION IN DAYS  (64 would be full run)
 1.0                       ! DRAMP - DURATION OF RAMP FUNCTION (IN DAYS)
 0.35 0.30 0.35            ! TIME WEIGHTING FACTORS FOR THE GWCE EQUATION
 0.5                       ! H0 - MINIMUM CUTOFF DEPTH
 -76.0 33.0                ! SLAM0,SFEA0 - CENTER OF CPP PROJECTION IN DEGREES LONG/LAT
 0.0025 1.0 10. 0.3333     ! FFACTOR - BOTTOM FRICTION COEFFICIENT
 2.0                       ! ESL - LATERAL EDDY VISCOSITY COEFFICIENT; IGNORED IF NWP =1
 0.0                       ! CORI - CORIOLIS PARAMETER - IGNORED IF NCOR = 1
 0                         ! NUMBER OF TIDAL POTENTIAL CONSTITUENTS BEING FORCED
 0                         ! NBFR - TOTAL NUMBER OF FORCING FREQUENCIES ON OPEN BOUNDARIES
100.0                      ! ANGINN : INNER ANGLE THRESHOLD
 1 0.0 57. 600             ! NOUTE,TOUTSE,TOUTFE,NSPOOLE:ELEV STATION OUTPUT INFO (UNIT  61)
 3                         ! TOTAL NUMBER OF ELEVATION RECORDING STATIONS
 -76.2784,35.1735
 -76.0034,35.2734
 -75.6808,35.4799
 1 0.0 57. 600             ! NOUTV,TOUTSV,TOUTFV,NSPOOLV:VEL STATION OUTPUT INFO (UNIT  62)
 3                         ! TOTAL NUMBER OF VELOCITY RECORDING STATIONS
 -76.2784,35.1735
 -76.0034,35.2734
 -75.6808,35.4799
 1 0.0 57. 600             ! NOUTM,TOUTSM,TOUTFM,NSPOOLM: MET STATION OUTPUT INFO (UNIT  71)
 3                         ! TOTAL NUMBER OF MET RECORDING STATIONS
 -76.2784,35.1735
 -76.0034,35.2734
 -75.6808,35.4799
1  0.0  57.  1200          ! NOUTGE,TOUTSGE,TOUTFGE,NSPOOLGE : GLOBAL ELEV OUTPUT (UNIT  63)
1  0.0  57.  1200          ! NOUTGV,TOUTSGV,TOUTFGV,NSPOOLGV : GLOBAL VEL  OUTPUT (UNIT  64)
1  0.0  57.  1200          ! NOUTGW,TOUTSGW,TOUTFGW,NPSOOLGW : GLOBAL WIND OUTPUT (UNIT  74)
0                          ! NHARFR - # FREQS IN HAR ANAL
0.0  0.0  40  0.0000000    ! THAS, THAF, NHAINC,FMV
0 0 0 0                    ! NHASE,NHASV,NHAGE,NHAGV
1  7200                    ! NHSTAR,NHSINC
1  0  1e-10  25            ! ITITER,ISLDIA,CONVCR,ITMAX
