Ideal Channel                            ! 32 CHARACTER ALPHANUMERIC RUN DESCRIPTION
Sponge+PeriodicLateralBCS                ! 24 CHARACTER ALPHANUMERIC RUN IDENTIFICATION
1        	 ! NFOVER 
3        	 ! NABOUT 
450        	 ! NSCREEN 
0        	 ! IHOT 
2         	 ! ICS 
111112          	 ! IM 
1            	 ! NOLIBF 
2            	 ! NOLIFA 
1           	 ! NOLICA 
1           	 ! NOLICAT 
1           	 ! NWP 
sponge_generator_layer
1   	 	 ! NCOR 
0   	 	 ! NTIP 
0   	 	 ! NWS 
1    	 	 ! NRAMP 
9.810000    	 ! G  
0.01   	 	 ! TAU0 
2    	 	 ! DTDP 
0  	 	 ! STATIM 
0   	 	 ! REFTIM 
0.25   	 	 ! RNDY 
0.05   	 	 ! DRAMP 
0 1 0   	  ! A00, B00, C00 
0.1 0 0 0.01    	 ! H0, 2*dummy, VELMIN 
-89.950000 30.050000  	 	 ! SLAM0, SFEA0 
0.002500 1.000000 10.000000 0.333330     	 ! CF 
50.000000     	 	 ! ELSM 
0.000000   	 ! CORI 
0   	 	 ! NTIF 
1   	 	 ! NBFR 
DIURNAL  
 1.454440000e-04 1.000000 90.000000 
DIURNAL 
 1.000000000e+00                0 
 1.000000000e+00                0 
 1.000000000e+00                0 
 1.000000000e+00                0 
 1.000000000e+00                0 
 1.000000000e+00                0 
 1.000000000e+00                0 
 1.000000000e+00                0 
 1.000000000e+00                0 
 1.000000000e+00                0 
 1.000000000e+00                0 
 1.000000000e+00                0 
 1.000000000e+00                0 
 1.000000000e+00                0 
 1.000000000e+00                0 
 1.000000000e+00                0 
 1.000000000e+00                0 
 1.000000000e+00                0 
 1.000000000e+00                0 
 1.000000000e+00                0 
 1.000000000e+00                0 
 1.000000000e+00                0 
 1.000000000e+00                0 
 1.000000000e+00                0 
 1.000000000e+00                0 
 1.000000000e+00                0 
 1.000000000e+00                0 
 1.000000000e+00                0 
 1.000000000e+00                0 
 1.000000000e+00                0 
 1.000000000e+00                0 
 1.000000000e+00                0 
 1.000000000e+00                0 
 1.000000000e+00                0 
 1.000000000e+00                0 
 1.000000000e+00                0 
 1.000000000e+00                0 
 1.000000000e+00                0 
 1.000000000e+00                0 
 1.000000000e+00                0 
 1.000000000e+00                0 
 1.000000000e+00                0 
 1.000000000e+00                0 
 1.000000000e+00                0 
 1.000000000e+00                0 
 1.000000000e+00                0 
 1.000000000e+00                0 
 1.000000000e+00                0 
 1.000000000e+00                0 
 1.000000000e+00                0 
 1.000000000e+00                0 
 1.000000000e+00                0 
 1.000000000e+00                0 
 1.000000000e+00                0 
 1.000000000e+00                0 
 1.000000000e+00                0 
 1.000000000e+00                0 
 1.000000000e+00                0 
 1.000000000e+00                0 
 1.000000000e+00                0 
 1.000000000e+00                0 
 1.000000000e+00                0 
 1.000000000e+00                0 
 1.000000000e+00                0 
 1.000000000e+00                0 
 1.000000000e+00                0 
 1.000000000e+00                0 
 1.000000000e+00                0 
 1.000000000e+00                0 
 1.000000000e+00                0 
 1.000000000e+00                0 
 1.000000000e+00                0 
 1.000000000e+00                0 
 1.000000000e+00                0 
 1.000000000e+00                0 
 1.000000000e+00                0 
 1.000000000e+00                0 
 1.000000000e+00                0 
 1.000000000e+00                0 
 1.000000000e+00                0 
 1.000000000e+00                0 
 1.000000000e+00                0 
 1.000000000e+00                0 
 1.000000000e+00                0 
 1.000000000e+00                0 
 1.000000000e+00                0 
 1.000000000e+00                0 
 1.000000000e+00                0 
 1.000000000e+00                0 
 1.000000000e+00                0 
 1.000000000e+00                0 
 1.000000000e+00                0 
 1.000000000e+00                0 
 1.000000000e+00                0 
 1.000000000e+00                0 
 1.000000000e+00                0 
 1.000000000e+00                0 
 1.000000000e+00                0 
 1.000000000e+00                0 
 1.000000000e+00                0 
 1.000000000e+00                0 
 1.000000000e+00                0 
 1.000000000e+00                0 
 1.000000000e+00                0 
 1.000000000e+00                0 
 1.000000000e+00                0 
 1.000000000e+00                0 
 1.000000000e+00                0 
 1.000000000e+00                0 
 1.000000000e+00                0 
 1.000000000e+00                0 
 1.000000000e+00                0 
 1.000000000e+00                0 
 1.000000000e+00                0 
 1.000000000e+00                0 
 1.000000000e+00                0 
 1.000000000e+00                0 
 1.000000000e+00                0 
 1.000000000e+00                0 
 1.000000000e+00                0 
 1.000000000e+00                0 
100   	 	 ! ANGINN 
0 0 0 0   	 ! NOUTE, TOUTSE, TOUTFE, NSPOOLE 
0  	 	 ! NSTAE 
0 0 0 0  	 ! NOUTV, TOUTV, TOUTFV, NSPOOLV 
0  	 	 ! NSTAV 
5 0 1 450  	 ! NOUTGE, ... 
5 0 1 450        ! NOUTGV, ... 
0  	 	 ! NFREQ 
0 0 0 0  	 ! THAS, THAF, NHAINC, FMV 
0 0 0 0   	 ! NHASE, NHASV, NHAGE, NHAGV 
0 10800    ! NHSTAR, NHSINC 
1 0   1.000000000e-10 50  	 ! ITITER, ISLDIA, CONVCR, ITMAX 
Idealized Channel Problem
UND, Argonne
OceanMesh2D
Tests sponge layer and periodic lateral bcs
http://sites.nd.edu/william-pringle/
Model time is relative to UTC.
William Pringle
CF
wpringle@nd.edu
2014-04-29 00:00:00
